      96
 i =        0, time =        0.000, E =      -779.9658733966
 As         0.0001376353       -0.0000830204       -0.0000247120
 As         0.0000513897       -0.0000364359       -0.0000425413
 As        -0.0000303900       -0.0000589634       -0.0000866234
 As         0.0001768745       -0.0001267015        0.0000610698
 As         0.0001649640       -0.0000654450        0.0000230896
 As         0.0000585424       -0.0000620014        0.0001176872
 As         0.0000047475       -0.0000607693        0.0000732456
 As        -0.0001260142       -0.0001011260       -0.0000663211
 As        -0.0000951497        0.0000816586       -0.0000814779
 As        -0.0000133474        0.0001740367       -0.0000571945
 As        -0.0000326905        0.0001419306       -0.0000590630
 As         0.0000674455       -0.0000292873        0.0001070110
 As         0.0000051316        0.0000312093       -0.0001045977
 As        -0.0000573637       -0.0000211397        0.0000780286
 As        -0.0000074483        0.0001541337        0.0000028255
 As         0.0001730670        0.0000509907        0.0000250736
 As        -0.0000033998       -0.0001273634        0.0000958100
 As        -0.0000242475        0.0000348655        0.0000316718
 As         0.0000536292        0.0000010643       -0.0000189015
 As        -0.0000535489        0.0000767479        0.0000412504
 As         0.0000548820       -0.0000112171        0.0001784225
 As        -0.0000942418        0.0000006579       -0.0000380199
 As         0.0001310571        0.0000012992       -0.0000502601
 As        -0.0002371353       -0.0000232156        0.0000124726
 As        -0.0000884238        0.0000683844       -0.0000561594
 As         0.0001321662        0.0000858710        0.0001117708
 As         0.0000491944       -0.0001328884        0.0000404735
 As         0.0000338641        0.0000041536        0.0000010908
 As        -0.0001413073       -0.0000209071        0.0000513288
 As        -0.0001069925        0.0000022547       -0.0000348871
 As        -0.0000043432        0.0001096074        0.0000786730
 As        -0.0000558074        0.0000504523        0.0000861854
 As         0.0001811045        0.0000967773        0.0001027900
 As         0.0000333246       -0.0000826401       -0.0000649224
 As         0.0001673269        0.0000601777       -0.0000597716
 As        -0.0001043245       -0.0000962570        0.0000122639
 As        -0.0001457675        0.0000703290       -0.0000416287
 As        -0.0000372205        0.0001531431        0.0000439781
 Se         0.0000053451       -0.0000270036       -0.0000058355
 Se        -0.0001220857       -0.0000062301        0.0000094334
 Se         0.0000189129        0.0000092071       -0.0001373366
 Se        -0.0000399269       -0.0000922253       -0.0000493311
 Se        -0.0000433777       -0.0000414134       -0.0000367177
 Se         0.0000260193       -0.0000550613       -0.0000102920
 Se        -0.0001363681       -0.0001416518       -0.0000089690
 Se        -0.0000193751       -0.0000456848       -0.0000851518
 Se         0.0000547510        0.0000196851       -0.0001756860
 Se         0.0000436401        0.0001219686       -0.0000031386
 Se        -0.0001267101       -0.0000236695       -0.0000346654
 Se         0.0000574492       -0.0000439677        0.0000245842
 Se         0.0000517052       -0.0000069604       -0.0000069004
 Se         0.0000994213       -0.0000881429        0.0000941364
 Se         0.0000481937        0.0001750136        0.0000823847
 Se         0.0000090108        0.0000073866        0.0000160181
 Se        -0.0001280677       -0.0000262721       -0.0001465474
 Se        -0.0000670364       -0.0000820591       -0.0000207657
 Se         0.0001078498       -0.0000199066       -0.0000488354
 Se         0.0001550780       -0.0000417335        0.0001102699
 Se         0.0000219285       -0.0000128185        0.0001140296
 Se         0.0000299132       -0.0000408767       -0.0000345233
 Se        -0.0000385602        0.0000561690        0.0000884710
 Se         0.0000444644       -0.0000945729        0.0000081939
 Se        -0.0000125979        0.0000125614       -0.0000349609
 Se         0.0000882299       -0.0000707933        0.0000636542
 Se        -0.0000762200        0.0000754019       -0.0001189833
 Se         0.0000126991       -0.0000736340        0.0001088447
 Se        -0.0000596321        0.0000615967        0.0001027217
 Se         0.0001074335        0.0000581448        0.0001325084
 Se         0.0000463607        0.0000174599        0.0000119220
 Se         0.0000873240        0.0000225123       -0.0002007252
 Se         0.0000644491        0.0000771169        0.0001856401
 Se        -0.0000041510       -0.0000811272       -0.0000472293
 Se         0.0000548499       -0.0001516487        0.0000522422
 Se        -0.0000523515        0.0001170976       -0.0000712421
 Se        -0.0000695184       -0.0000540534       -0.0000430905
 Se        -0.0000640063       -0.0001580972       -0.0000350531
 Se        -0.0000795839       -0.0001276752        0.0001516631
 Se        -0.0000481992        0.0000042728       -0.0001268436
 Se         0.0000343077       -0.0000289078       -0.0001031436
 Se         0.0000179897        0.0001699821       -0.0000501174
 Se        -0.0000404531        0.0000696113        0.0001598459
 Se        -0.0001612142        0.0000316630       -0.0000877641
 Se        -0.0000102033       -0.0001506462       -0.0000071824
 Se        -0.0000496671        0.0000958325        0.0000681747
 Se        -0.0000842838       -0.0000368075       -0.0000484705
 Se        -0.0000309350        0.0000381833        0.0000779017
 Se        -0.0000079421        0.0001304055       -0.0000171847
 Se         0.0000732493       -0.0000697297        0.0000471902
 Se         0.0001445919        0.0000913701       -0.0000925436
 Se        -0.0000201161        0.0000461537       -0.0000259118
 Se        -0.0000538801       -0.0000052027       -0.0000931999
 Se         0.0000425533        0.0000105989        0.0000021475
 Se        -0.0000285416       -0.0000004691       -0.0001695705
 Se        -0.0000262471        0.0000528669       -0.0000839880
 Se        -0.0000859903        0.0000152785        0.0001081945
 Se         0.0000334467        0.0000170092       -0.0000223862
