       5
 i =        0, time =        0.000, E =       -40.8590767740
 As         0.0000000000        0.0000000000        0.0000000000
 As         2.5000000000        0.0000000000        0.0000000000
 Se         1.2500000000        2.1650000000        0.0000000000
 Se         1.2500000000       -0.7220000000        2.0410000000
 Se         1.2500000000       -0.7220000000       -2.0410000000
       5
 i =        5, time =        2.500, E =       -40.8588736168
 As         0.0022709717       -0.0004379683       -0.0007810824
 As         2.4971523611        0.0028670763       -0.0020439740
 Se         1.2409222163        2.1659432388       -0.0050226158
 Se         1.2552235593       -0.7257345325        2.0459257589
 Se         1.2544013559       -0.7215135959       -2.0382225795
       5
 i =       10, time =        5.000, E =       -40.8587909685
 As         0.0035080464       -0.0003641584       -0.0015188922
 As         2.4953559983        0.0062433436       -0.0040304203
 Se         1.2319378718        2.1665569269       -0.0099880588
 Se         1.2603889495       -0.7297482724        2.0502880396
 Se         1.2587508312       -0.7213871201       -2.0350345073
       5
 i =       15, time =        7.500, E =       -40.8588358199
 As         0.0037096598        0.0001963651       -0.0021899990
 As         2.4946154809        0.0101838231       -0.0059515502
 Se         1.2229162045        2.1668604782       -0.0149632944
 Se         1.2655674982       -0.7340767281        2.0541069801
 Se         1.2631051288       -0.7216328794       -2.0314185708
       5
 i =       20, time =       10.000, E =       -40.8590086955
 As         0.0028821507        0.0012113149       -0.0027649887
 As         2.4949331768        0.0146976160       -0.0077777763
 Se         1.2138312074        2.1668711375       -0.0199577099
 Se         1.2707708431       -0.7387057070        2.0573541615
 Se         1.2674703938       -0.7222602817       -2.0273929604
       5
 i =       25, time =       12.500, E =       -40.8593066293
 As         0.0010330331        0.0026448851       -0.0032089459
 As         2.4963153674        0.0197575263       -0.0094600679
 Se         1.2047485056        2.1666023293       -0.0249301838
 Se         1.2759583718       -0.7435794948        2.0599542167
 Se         1.2718084811       -0.7232787550       -2.0230030841
       5
 i =       30, time =       15.000, E =       -40.8597167986
 As        -0.0017780054        0.0044398083       -0.0034914270
 As         2.4987162961        0.0252941426       -0.0109472644
 Se         1.1957777034        2.1660789618       -0.0298163281
 Se         1.2810653583       -0.7486112576        2.0618365987
 Se         1.2760612800       -0.7246799028       -2.0183202200
       5
 i =       35, time =       17.500, E =       -40.8602298848
 As        -0.0055255593        0.0065667840       -0.0035900800
 As         2.5021165976        0.0313281753       -0.0122155669
 Se         1.1868799460        2.1653188699       -0.0346328554
 Se         1.2861122046       -0.7537975581        2.0629613449
 Se         1.2802415196       -0.7264768313       -2.0133314884
       5
 i =       40, time =       20.000, E =       -40.8608361217
 As        -0.0102079448        0.0090171827       -0.0034898354
 As         2.5065142691        0.0379472395       -0.0132630057
 Se         1.1779055266        2.1643347218       -0.0394571043
 Se         1.2911830659       -0.7591974721        2.0633120586
 Se         1.2844150644       -0.7286980469       -2.0079593047
       5
 i =       45, time =       22.500, E =       -40.8615101440
 As        -0.0157080950        0.0117177798       -0.0031734433
 As         2.5118023040        0.0450550274       -0.0140480799
 Se         1.1689844810        2.1631614775       -0.0442147382
 Se         1.2962038109       -0.7647094334        2.0628265275
 Se         1.2885164108       -0.7313192209       -2.0022715048
       5
 i =       50, time =       25.000, E =       -40.8622345437
 As        -0.0219660008        0.0146312846       -0.0026298758
 As         2.5179229097        0.0526595695       -0.0145565605
 Se         1.1600892968        2.1618219061       -0.0489170956
 Se         1.3011903821       -0.7703239494        2.0614659078
 Se         1.2925550691       -0.7343448562       -1.9962418991
       5
 i =       55, time =       27.500, E =       -40.8629867730
 As        -0.0288597996        0.0176918868       -0.0018555309
 As         2.5247567565        0.0606950755       -0.0147711164
 Se         1.1512827133        2.1603514611       -0.0535277481
 Se         1.3061086069       -0.7759763004        2.0591996729
 Se         1.2965001021       -0.7377502804       -1.9898962347
       5
 i =       60, time =       30.000, E =       -40.8637439916
 As        -0.0362239300        0.0208172149       -0.0008576126
 As         2.5321381274        0.0690517556       -0.0146825374
 Se         1.1426660887        2.1587945025       -0.0579910647
 Se         1.3109036557       -0.7815764577        2.0560242417
 Se         1.3003051018       -0.7414875520       -1.9832884796
       5
 i =       65, time =       32.500, E =       -40.8644982589
 As        -0.0439934625        0.0239689965        0.0003654595
 As         2.5399998295        0.0777353911       -0.0142875240
 Se         1.1342166561        2.1571737095       -0.0623164578
 Se         1.3155905020       -0.7871156993        2.0519019223
 Se         1.3039800336       -0.7455571970       -1.9763761498
       5
 i =       70, time =       35.000, E =       -40.8652516652
 As        -0.0522079698        0.0271513609        0.0018280842
 As         2.5483786440        0.0868663334       -0.0135822924
 Se         1.1257994644        2.1554896927       -0.0665710949
 Se         1.3202468391       -0.7926602013        2.0467448997
 Se         1.3075847589       -0.7500118051       -1.9690215148
       5
 i =       75, time =       37.500, E =       -40.8659945799
 As        -0.0607695322        0.0303101004        0.0035220126
 As         2.5571715064        0.0964075116       -0.0125705437
 Se         1.1174389331        2.1537722223       -0.0707401520
 Se         1.3248622772       -0.7981733522        2.0405327025
 Se         1.3111101599       -0.7548311279       -1.9612075768
       5
 i =       80, time =       40.000, E =       -40.8667143670
 As        -0.0694902511        0.0333577813        0.0054171622
 As         2.5661810296        0.1062183291       -0.0112724107
 Se         1.1092478214        2.1520690759       -0.0747652320
 Se         1.3293780824       -0.8035612775        2.0333200186
 Se         1.3145111960       -0.7599404070       -1.9529997027
       5
 i =       85, time =       42.500, E =       -40.8674158041
 As        -0.0783575338        0.0362708519        0.0075152042
 As         2.5753885309        0.1163486903       -0.0096912631
 Se         1.1011726428        2.1503928717       -0.0786710811
 Se         1.3338275846       -0.8088412064        2.0250409738
 Se         1.3178137704       -0.7653600403       -1.9443057807
       5
 i =       90, time =       45.000, E =       -40.8681002596
 As        -0.0873210257        0.0390116443        0.0098070649
 As         2.5847352820        0.1268008995       -0.0078395049
 Se         1.0932012506        2.1487635952       -0.0824621454
 Se         1.3382214395       -0.8140046554        2.0156673329
 Se         1.3210273008       -0.7710849597       -1.9350728275
       5
 i =       95, time =       47.500, E =       -40.8687620738
 As        -0.0962104400        0.0415054600        0.0122503505
 As         2.5940366113        0.1374318419       -0.0057579676
 Se         1.0854337526        2.1472229189       -0.0860893256
 Se         1.3425084780       -0.8189720002        2.0053050596
 Se         1.3241165375       -0.7770297532       -1.9253768553
       5
 i =      100, time =       50.000, E =       -40.8694020501
 As        -0.1049115073        0.0436980735        0.0148120177
 As         2.6031651726        0.1481540784       -0.0034828772
 Se         1.0779240757        2.1458008891       -0.0895263993
 Se         1.3466628585       -0.8236962203        1.9940267915
 Se         1.3270658896       -0.7831371710       -1.9152509794
       5
 i =      105, time =       52.500, E =       -40.8700388853
 As        -0.1135930532        0.0456069680        0.0175400350
 As         2.6122902912        0.1592238355       -0.0009796735
 Se         1.0704869547        2.1444809330       -0.0928563798
 Se         1.3507906703       -0.8282823622        1.9815481822
 Se         1.3299539890       -0.7895453313       -1.9044061990
       5
 i =      110, time =       55.000, E =       -40.8706633781
 As        -0.1220920964        0.0471724152        0.0203789664
 As         2.6212327492        0.1704763672        0.0016915525
 Se         1.0632267973        2.1432982518       -0.0960308914
 Se         1.3548371688       -0.8326567440        1.9680501068
 Se         1.3327465361       -0.7961500513       -1.8929621238
       5
 i =      115, time =       57.500, E =       -40.8712679530
 As        -0.1302437158        0.0483417348        0.0232672727
 As         2.6298113321        0.1817314481        0.0044628165
 Se         1.0562535182        2.1422854331       -0.0990002738
 Se         1.3587437554       -0.8367461648        1.9537533009
 Se         1.3354077148       -0.8028360940       -1.8810662125
       5
 i =      120, time =       60.000, E =       -40.8718476371
 As        -0.1379239549        0.0490814039        0.0261504406
 As         2.6378884205        0.1928452085        0.0072705080
 Se         1.0496464458        2.1414649776       -0.1017301020
 Se         1.3624677178       -0.8405009885        1.9388642709
 Se         1.3379138714       -0.8095073402       -1.8688472965
       5
 i =      125, time =       62.500, E =       -40.8724113149
 As        -0.1452385188        0.0493876952        0.0290562543
 As         2.6455688522        0.2039945669        0.0101302409
 Se         1.0432918169        2.1408319581       -0.1042663201
 Se         1.3660742114       -0.8439848944        1.9231763226
 Se         1.3403144204       -0.8162595082       -1.8560939732
       5
 i =      130, time =       65.000, E =       -40.8729521794
 As        -0.1521404983        0.0492450984        0.0319533919
 As         2.6527979734        0.2151318998        0.0129997286
 Se         1.0372102957        2.1403967476       -0.1065987316
 Se         1.3695519188       -0.8471872256        1.9067911691
 Se         1.3426074058       -0.8230537257       -1.8428482954
       5
 i =      135, time =       67.500, E =       -40.8734674211
 As        -0.1586853423        0.0486408237        0.0348509361
 As         2.6596293657        0.2263689522        0.0158762908
 Se         1.0313353093        2.1401616749       -0.1087502681
 Se         1.3729386318       -0.8501458636        1.8895869331
 Se         1.3448233804       -0.8299483754       -1.8289714762
       5
 i =      140, time =       70.000, E =       -40.8739448853
 As        -0.1648693137        0.0475655794        0.0377313434
 As         2.6660554834        0.2377204213        0.0187305801
 Se         1.0256544297        2.1401322948       -0.1107221738
 Se         1.3762406154       -0.8528721372        1.8715923299
 Se         1.3469720973       -0.8369427712       -1.8144465215
       5
 i =      145, time =       72.500, E =       -40.8743661994
 As        -0.1706272504        0.0460230287        0.0405464296
 As         2.6720057020        0.2490872113        0.0215025814
 Se         1.0202132504        2.1403140945       -0.1124944743
 Se         1.3794299694       -0.8553516158        1.8530253178
 Se         1.3490411053       -0.8439662961       -1.7994086903
       5
 i =      150, time =       75.000, E =       -40.8747150317
 As        -0.1759518283        0.0440212857        0.0432700295
 As         2.6774706730        0.2604573858        0.0241544084
 Se         1.0150092492        2.1407073391       -0.1140654217
 Se         1.3825058721       -0.8575979667        1.8339866185
 Se         1.3510356406       -0.8510019025       -1.7838996940
       5
 i =      155, time =       77.500, E =       -40.8749746035
 As        -0.1808306363        0.0415701282        0.0458718465
 As         2.6824358981        0.2718110631        0.0266440974
 Se         1.0100455607        2.1413128376       -0.1154298315
 Se         1.3854641874       -0.8596239444        1.8145973165
 Se         1.3529586637       -0.8580280333       -1.7679772296
       5
 i =      160, time =       80.000, E =       -40.8751278852
 As        -0.1853248117        0.0386575920        0.0483563715
 As         2.6869624841        0.2832789291        0.0289638856
 Se         1.0052559587        2.1421354667       -0.1166030086
 Se         1.3883417774       -0.8614750635        1.7947382894
 Se         1.3548395194       -0.8651167184       -1.7515037572
       5
 i =      165, time =       82.500, E =       -40.8751540282
 As        -0.1893582549        0.0353598280        0.0506505186
 As         2.6909726409        0.2946451299        0.0310335288
 Se         1.0007208058        2.1431564487       -0.1175624278
 Se         1.3910879878       -0.8631416474        1.7748984924
 Se         1.3566501601       -0.8721262913       -1.7348452936
       5
 i =      170, time =       85.000, E =       -40.8750406659
 As        -0.1929536726        0.0316957875        0.0527330326
 As         2.6944873927        0.3059371389        0.0328220513
 Se         0.9964181336        2.1443735605       -0.1183103296
 Se         1.3937142477       -0.8646560027        1.7551561476
 Se         1.3584027409       -0.8790662925       -1.7180282288
       5
 i =      175, time =       87.500, E =       -40.8747754075
 As        -0.1961483979        0.0276868443        0.0545884596
 As         2.6975418767        0.3172019926        0.0343057744
 Se         0.9923153377        2.1457835097       -0.1188527142
 Se         1.3962391280       -0.8660568327        1.7355636316
 Se         1.3601133678       -0.8859596520       -1.7010618285
       5
 i =      180, time =       90.000, E =       -40.8743539128
 As        -0.1989404482        0.0234024767        0.0561768193
 As         2.7001314773        0.3283510781        0.0354414346
 Se         0.9884304013        2.1473675819       -0.1191869083
 Se         1.3986514589       -0.8673663448        1.7164167965
 Se         1.3617776922       -0.8927472938       -1.6841656079
       5
 i =      185, time =       92.500, E =       -40.8737672354
 As        -0.2013967031        0.0188280134        0.0574964774
 As         2.7023151866        0.3395354026        0.0362170469
 Se         0.9846941295        2.1491378948       -0.1193205482
 Se         1.4009952958       -0.8686371447        1.6976015588
 Se         1.3634283439       -0.8995180985       -1.6672049446
       5
 i =      190, time =       95.000, E =       -40.8730163768
 As        -0.2035418922        0.0140196015        0.0585208020
 As         2.7041107671        0.3507274575        0.0366041645
 Se         0.9810985443        2.1510812611       -0.1192557147
 Se         1.4032783460       -0.8699012795        1.6793148508
 Se         1.3650722655       -0.9062539823       -1.6503224161
       5
 i =      195, time =       97.500, E =       -40.8721207346
 As        -0.2053876207        0.0090859139        0.0592196493
 As         2.7055250704        0.3617904218        0.0365800179
 Se         0.9776669990        2.1531626809       -0.1189986395
 Se         1.4054895511       -0.8711781214        1.6619239269
 Se         1.3667016106       -0.9128738245       -1.6338288276
       5
 i =      200, time =      100.000, E =       -40.8710898719
 As        -0.2069902186        0.0040281286        0.0595830329
 As         2.7065984015        0.3728325724        0.0361280138
 Se         0.9743444482        2.1553922916       -0.1185515256
 Se         1.4076697321       -0.8725134934        1.6454024574
 Se         1.3683458052       -0.9194457763       -1.6176704604
