      96
 i =        0, time =        0.000, E =      -779.9658733966
 As         9.2384800000        6.5738000000        7.6014500000
 As        13.3641400000       19.0770500000       13.9780300000
 As         5.1886600000        8.5583500000       16.7797800000
 As        19.9827300000       12.4841100000       16.5378900000
 As         3.1194000000        0.7243700000       13.7408100000
 As         8.9779500000       16.0357000000       18.9270100000
 As         8.5425800000        0.4466000000       19.6472000000
 As         7.1214500000        2.7367300000        3.4818700000
 As         3.0517500000        4.4310000000       17.8429600000
 As        10.7261000000       13.9421800000        5.5442500000
 As         3.0183600000       11.5891200000        9.1137500000
 As         7.6937500000        7.9699500000       17.1561100000
 As        13.4701000000        0.3968800000        8.3280100000
 As        17.3855100000       18.3420500000       15.3849800000
 As         0.4388800000       12.8704600000        4.8990500000
 As         1.6885800000        0.5824700000       18.5519600000
 As        15.1023200000       10.4940600000        8.4467000000
 As        11.0935000000       11.0504700000        0.6525500000
 As         9.5431600000       17.6472300000       10.5508900000
 As        14.1231800000       14.4540600000        4.1772100000
 As         4.6074000000       16.6121600000       11.6471300000
 As        15.7885500000        1.2014400000        9.6943800000
 As        18.6273800000       14.1471600000        5.7806200000
 As         4.6436300000       18.8455100000       11.3703700000
 As        19.7469500000       15.5583400000        1.4724000000
 As         8.2080400000       16.4411800000        5.0976400000
 As         3.6234600000        2.6404600000       14.8836100000
 As         2.6479800000        7.3509100000       13.6977200000
 As         2.6553500000        8.1112800000       10.6138700000
 As         0.4454200000        1.9943400000       16.5969400000
 As         1.9205600000       18.6182000000       10.0091700000
 As        14.2315800000        7.7436900000       14.6901700000
 As        13.9949000000       15.7068100000        2.1574400000
 As        16.9422800000        2.7790500000       13.6932600000
 As         6.9166500000        0.4813700000       17.0040800000
 As         3.8979400000       15.3091600000       13.5790600000
 As        13.1047400000        4.3727800000        4.4398200000
 As        17.1428600000        0.7383300000       19.0374300000
 Se        19.1929400000        6.9143600000       10.7323000000
 Se        17.9850300000        4.7037400000       15.7000500000
 Se        15.7944300000        0.7178000000       12.6729500000
 Se        17.7059300000       17.9745000000        4.9469200000
 Se         2.8658900000       12.9406500000       18.9680000000
 Se         9.2486500000       10.4760700000        7.5547500000
 Se        13.1560900000       11.7008400000        9.6651400000
 Se        17.1816100000        8.4925600000        7.6325600000
 Se         5.6896900000       10.4313100000        8.9668600000
 Se        10.6155700000       19.2128500000        1.7080800000
 Se        11.4453700000        7.3286700000        5.6096700000
 Se        10.1616000000       13.5157600000        8.1721800000
 Se        16.6374800000        9.5584800000        3.3096200000
 Se        19.1753100000        6.9315100000       14.1167100000
 Se         1.4426600000       11.0603800000        1.2989600000
 Se        15.6363800000        7.2381800000        9.8760500000
 Se        19.2417000000        7.1654900000        4.7031100000
 Se         6.4812500000        7.6073000000        2.7048500000
 Se        18.9351900000        4.2825500000        3.5123900000
 Se        12.1593400000       17.5548900000        5.5042900000
 Se         5.4842000000        0.6276100000        9.6536100000
 Se        16.9840600000       15.8828100000        2.4683100000
 Se        11.9299800000       17.2878200000        0.9385600000
 Se         1.0347100000        7.2722100000        8.3756800000
 Se         8.6283500000       11.6418500000       14.4258300000
 Se        10.4641900000        7.2967900000       13.0130300000
 Se         1.8561000000        8.7835400000        3.6558100000
 Se         0.9523000000        0.1738300000        5.7122700000
 Se        19.3459600000       12.1090400000        2.6635700000
 Se         3.6386600000        3.4299800000        1.9166700000
 Se        18.7706000000        1.6488100000        7.1525500000
 Se         5.1635500000        9.5077900000        0.2121100000
 Se        11.1200700000       15.1397500000       16.6247500000
 Se         8.5089300000        1.1886500000        1.4872400000
 Se        19.9232100000        3.4682900000       19.7129500000
 Se         2.4084700000       17.1091400000        7.6854100000
 Se         5.7953700000       15.6190100000        0.9145300000
 Se         6.4662100000       15.2416600000        8.3315800000
 Se        15.0690000000        4.7563700000        0.3289400000
 Se        18.3721100000        8.9173900000       18.0547100000
 Se        10.1611300000        2.8242800000       19.1339600000
 Se         4.7425600000        8.5320500000        6.1977600000
 Se        14.0326000000        6.4961000000       19.5569200000
 Se         1.3549400000        5.1952800000       19.5254300000
 Se        13.5867900000        7.8583400000        0.1502100000
 Se        11.7480800000       19.3970700000        8.7148200000
 Se        15.2197900000       16.3968700000        7.5517300000
 Se         0.7029600000       16.7924500000        0.6346900000
 Se         1.7923500000        2.9324800000       19.1671700000
 Se        13.0771900000       11.1435600000        3.4103800000
 Se        13.4599900000       11.9522500000        1.2725400000
 Se         3.8640300000       18.9435100000       16.7166500000
 Se        13.7521400000       12.8097600000       19.9465300000
 Se         4.9678800000       17.5348100000        3.1025400000
 Se         6.7962100000       14.1489700000       13.0564500000
 Se         2.1831000000        0.2887100000       10.0156000000
 Se         6.5195500000       10.8877500000       14.2710000000
 Se         8.9340400000        5.2908000000       12.1200100000
