       5
 i =        0, time =        0.000, E =       -40.8590767740
 As         0.0000511848       -0.0000129444       -0.0000145622
 As        -0.0000618919        0.0000481325       -0.0000379383
 Se        -0.0001680126        0.0000204666       -0.0000929755
 Se         0.0000966917       -0.0000660439        0.0000956483
 Se         0.0000814804        0.0000121888        0.0000471425
       5
 i =        5, time =        2.500, E =       -40.8588736168
 As         0.0000320658       -0.0000032203       -0.0000139803
 As        -0.0000424795        0.0000570742       -0.0000369381
 Se        -0.0001650670        0.0000141793       -0.0000912948
 Se         0.0000949551       -0.0000708982        0.0000849687
 Se         0.0000799912        0.0000056192        0.0000546399
       5
 i =       10, time =        5.000, E =       -40.8587909685
 As         0.0000131307        0.0000058525       -0.0000129192
 As        -0.0000231569        0.0000665754       -0.0000356688
 Se        -0.0001638723        0.0000083137       -0.0000904850
 Se         0.0000941502       -0.0000759895        0.0000745870
 Se         0.0000792321       -0.0000010462        0.0000620009
       5
 i =       15, time =        7.500, E =       -40.8588358199
 As        -0.0000057604        0.0000145903       -0.0000115645
 As        -0.0000039246        0.0000778193       -0.0000346045
 Se        -0.0001666908        0.0000028521       -0.0000917960
 Se         0.0000955859       -0.0000825316        0.0000651929
 Se         0.0000802922       -0.0000080004        0.0000704103
       5
 i =       20, time =       10.000, E =       -40.8590086955
 As        -0.0000245243        0.0000224672       -0.0000093813
 As         0.0000155811        0.0000874236       -0.0000321256
 Se        -0.0001658619       -0.0000024171       -0.0000910060
 Se         0.0000948705       -0.0000868368        0.0000534981
 Se         0.0000794748       -0.0000150111        0.0000768912
       5
 i =       25, time =       12.500, E =       -40.8593066293
 As        -0.0000429479        0.0000297779       -0.0000067365
 As         0.0000348718        0.0000973550       -0.0000291906
 Se        -0.0001657995       -0.0000073468       -0.0000905513
 Se         0.0000945476       -0.0000910574        0.0000412662
 Se         0.0000789124       -0.0000222211        0.0000833739
       5
 i =       30, time =       15.000, E =       -40.8597167986
 As        -0.0000595617        0.0000356476       -0.0000035132
 As         0.0000526800        0.0001048500       -0.0000250444
 Se        -0.0001618886       -0.0000116922       -0.0000879180
 Se         0.0000919972       -0.0000926512        0.0000273722
 Se         0.0000764182       -0.0000289633        0.0000876414
       5
 i =       35, time =       17.500, E =       -40.8602298848
 As        -0.0000775349        0.0000421303       -0.0000000378
 As         0.0000717177        0.0001161500       -0.0000213273
 Se        -0.0001640316       -0.0000160755       -0.0000884955
 Se         0.0000928629       -0.0000972355        0.0000136795
 Se         0.0000766855       -0.0000368685        0.0000950865
       5
 i =       40, time =       20.000, E =       -40.8608361217
 As        -0.0000928602        0.0000469986        0.0000037545
 As         0.0000883283        0.0001249369       -0.0000167307
 Se        -0.0001628327       -0.0000197046       -0.0000871969
 Se         0.0000918243       -0.0000993651       -0.0000011098
 Se         0.0000753049       -0.0000440659        0.0001006176
       5
 i =       45, time =       22.500, E =       -40.8615101440
 As        -0.0001079513        0.0000515718        0.0000078486
 As         0.0001047409        0.0001348398       -0.0000119053
 Se        -0.0001632578       -0.0000230983       -0.0000866967
 Se         0.0000916997       -0.0001020292       -0.0000167799
 Se         0.0000746000       -0.0000517433        0.0001073247
       5
 i =       50, time =       25.000, E =       -40.8622345437
 As        -0.0001205955        0.0000548068        0.0000120461
 As         0.0001187888        0.0001431693       -0.0000066487
 Se        -0.0001619963       -0.0000257938       -0.0000852361
 Se         0.0000906390       -0.0001031812       -0.0000330826
 Se         0.0000730676       -0.0000588688        0.0001131961
       5
 i =       55, time =       27.500, E =       -40.8629867730
 As        -0.0001303793        0.0000565936        0.0000161755
 As         0.0001299947        0.0001496560       -0.0000011619
 Se        -0.0001590129       -0.0000277096       -0.0000828205
 Se         0.0000886421       -0.0001027673       -0.0000495840
 Se         0.0000707319       -0.0000652172        0.0001181575
       5
 i =       60, time =       30.000, E =       -40.8637439916
 As        -0.0001375850        0.0000571044        0.0000201596
 As         0.0001385852        0.0001546973        0.0000043786
 Se        -0.0001548965       -0.0000289164       -0.0000797768
 Se         0.0000860535       -0.0001011692       -0.0000661296
 Se         0.0000678903       -0.0000708763        0.0001226221
       5
 i =       65, time =       32.500, E =       -40.8644982589
 As        -0.0001475897        0.0000585339        0.0000247664
 As         0.0001499648        0.0001642758        0.0000101385
 Se        -0.0001555117       -0.0000305436       -0.0000791171
 Se         0.0000861365       -0.0001022549       -0.0000854306
 Se         0.0000671176       -0.0000786078        0.0001314273
       5
 i =       70, time =       35.000, E =       -40.8652516652
 As        -0.0001534805        0.0000580599        0.0000288589
 As         0.0001571125        0.0001706208        0.0000157051
 Se        -0.0001532699       -0.0000311475       -0.0000769585
 Se         0.0000846906       -0.0001010742       -0.0001037941
 Se         0.0000651289       -0.0000847555        0.0001384672
       5
 i =       75, time =       37.500, E =       -40.8659945799
 As        -0.0001580726        0.0000568185        0.0000328139
 As         0.0001628456        0.0001768104        0.0000211315
 Se        -0.0001511848       -0.0000313156       -0.0000748507
 Se         0.0000833950       -0.0000996264       -0.0001225756
 Se         0.0000632568       -0.0000907296        0.0001462401
       5
 i =       80, time =       40.000, E =       -40.8667143670
 As        -0.0001601089        0.0000543250        0.0000363372
 As         0.0001658518        0.0001813471        0.0000262127
 Se        -0.0001479028       -0.0000307944       -0.0000721181
 Se         0.0000815066       -0.0000970492       -0.0001407853
 Se         0.0000609425       -0.0000957654        0.0001535543
       5
 i =       85, time =       42.500, E =       -40.8674158041
 As        -0.0001635039        0.0000519124        0.0000402458
 As         0.0001701573        0.0001885642        0.0000314882
 Se        -0.0001469856       -0.0000303427       -0.0000705087
 Se         0.0000809929       -0.0000957074       -0.0001616373
 Se         0.0000596739       -0.0001021167        0.0001640808
       5
 i =       90, time =       45.000, E =       -40.8681002596
 As        -0.0001643535        0.0000482535        0.0000435945
 As         0.0001716964        0.0001939395        0.0000362352
 Se        -0.0001447467       -0.0000292129       -0.0000682267
 Se         0.0000798242       -0.0000932102       -0.0001815044
 Se         0.0000579482       -0.0001073715        0.0001739827
       5
 i =       95, time =       47.500, E =       -40.8687620738
 As        -0.0001609049        0.0000429314        0.0000457906
 As         0.0001686068        0.0001951893        0.0000398846
 Se        -0.0001396183       -0.0000271295       -0.0000645627
 Se         0.0000771355       -0.0000886043       -0.0001977944
 Se         0.0000551687       -0.0001101953        0.0001810625
       5
 i =      100, time =       50.000, E =       -40.8694020501
 As        -0.0001583364        0.0000374355        0.0000481894
 As         0.0001662935        0.0001983631        0.0000435547
 Se        -0.0001360412       -0.0000250092       -0.0000615976
 Se         0.0000753719       -0.0000847717       -0.0002162081
 Se         0.0000531134       -0.0001139467        0.0001907518
       5
 i =      105, time =       52.500, E =       -40.8700388853
 As        -0.0001579938        0.0000320251        0.0000512064
 As         0.0001661736        0.0002051489        0.0000476232
 Se        -0.0001350599       -0.0000230464       -0.0000597790
 Se         0.0000751083       -0.0000823685       -0.0002387170
 Se         0.0000521839       -0.0001196177        0.0002047180
       5
 i =      110, time =       55.000, E =       -40.8706633781
 As        -0.0001525775        0.0000251151        0.0000525072
 As         0.0001605752        0.0002061527        0.0000499286
 Se        -0.0001303424       -0.0000201426       -0.0000562655
 Se         0.0000728238       -0.0000775216       -0.0002546253
 Se         0.0000499227       -0.0001217637        0.0002136909
       5
 i =      115, time =       57.500, E =       -40.8712679530
 As        -0.0001448159        0.0000175064        0.0000528247
 As         0.0001523713        0.0002045344        0.0000510959
 Se        -0.0001241490       -0.0000167893       -0.0000521038
 Se         0.0000697529       -0.0000717169       -0.0002669435
 Se         0.0000472200       -0.0001221660        0.0002204389
       5
 i =      120, time =       60.000, E =       -40.8718476371
 As        -0.0001374592        0.0000096287        0.0000531042
 As         0.0001444683        0.0002040192        0.0000520227
 Se        -0.0001187591       -0.0000133427       -0.0000482535
 Se         0.0000671618       -0.0000663239       -0.0002803020
 Se         0.0000449390       -0.0001230422        0.0002288025
       5
 i =      125, time =       62.500, E =       -40.8724113149
 As        -0.0001295620        0.0000015306        0.0000529233
 As         0.0001358921        0.0002030390        0.0000522844
 Se        -0.0001132812       -0.0000097537       -0.0000443555
 Se         0.0000645299       -0.0000609007       -0.0002923050
 Se         0.0000427372       -0.0001234404        0.0002368300
       5
 i =      130, time =       65.000, E =       -40.8729521794
 As        -0.0001224598       -0.0000067652        0.0000528139
 As         0.0001280607        0.0002036920        0.0000524050
 Se        -0.0001088377       -0.0000061226       -0.0000408262
 Se         0.0000624869       -0.0000560722       -0.0003059195
 Se         0.0000410288       -0.0001246488        0.0002469050
       5
 i =      135, time =       67.500, E =       -40.8734674211
 As        -0.0001167720       -0.0000153904        0.0000530577
 As         0.0001216312        0.0002071742        0.0000526608
 Se        -0.0001059697       -0.0000024384       -0.0000378220
 Se         0.0000613406       -0.0000521114       -0.0003230058
 Se         0.0000400108       -0.0001274144        0.0002605133
       5
 i =      140, time =       70.000, E =       -40.8739448853
 As        -0.0001087763       -0.0000238424        0.0000519381
 As         0.0001127400        0.0002069016        0.0000513428
 Se        -0.0001012737        0.0000013800       -0.0000341033
 Se         0.0000591134       -0.0000473725       -0.0003331852
 Se         0.0000383919       -0.0001276934        0.0002692872
       5
 i =      145, time =       72.500, E =       -40.8743661994
 As        -0.0001021126       -0.0000326784        0.0000511022
 As         0.0001051827        0.0002094895        0.0000500785
 Se        -0.0000980577        0.0000052972       -0.0000308051
 Se         0.0000577192       -0.0000434915       -0.0003467370
 Se         0.0000374189       -0.0001295633        0.0002815335
       5
 i =      150, time =       75.000, E =       -40.8747150317
 As        -0.0000929549       -0.0000406043        0.0000485921
 As         0.0000950249        0.0002070298        0.0000469497
 Se        -0.0000926115        0.0000091013       -0.0000267462
 Se         0.0000549695       -0.0000388659       -0.0003503874
 Se         0.0000356714       -0.0001281387        0.0002864754
       5
 i =      155, time =       77.500, E =       -40.8749746035
 As        -0.0000860392       -0.0000492848        0.0000467747
 As         0.0000871343        0.0002095104        0.0000442657
 Se        -0.0000895170        0.0000131132       -0.0000233027
 Se         0.0000535696       -0.0000355285       -0.0003606306
 Se         0.0000349013       -0.0001296048        0.0002975467
       5
 i =      160, time =       80.000, E =       -40.8751278852
 As        -0.0000781417       -0.0000570199        0.0000438864
 As         0.0000782278        0.0002093503        0.0000403449
 Se        -0.0000854565        0.0000169200       -0.0000195479
 Se         0.0000515461       -0.0000321683       -0.0003643318
 Se         0.0000338213       -0.0001292803        0.0003039538
       5
 i =      165, time =       82.500, E =       -40.8751540282
 As        -0.0000691780       -0.0000632683        0.0000397910
 As         0.0000682395        0.0002056152        0.0000351094
 Se        -0.0000801629        0.0000203289       -0.0000154894
 Se         0.0000487354       -0.0000287776       -0.0003595737
 Se         0.0000323110       -0.0001266069        0.0003039908
       5
 i =      170, time =       85.000, E =       -40.8750406659
 As        -0.0000622766       -0.0000705455        0.0000362288
 As         0.0000602575        0.0002070829        0.0000301382
 Se        -0.0000771270        0.0000241380       -0.0000118423
 Se         0.0000472678       -0.0000266680       -0.0003615214
 Se         0.0000317684       -0.0001270135        0.0003103886
       5
 i =      175, time =       87.500, E =       -40.8747754075
 As        -0.0000545576       -0.0000758055        0.0000314984
 As         0.0000514428        0.0002045503        0.0000239898
 Se        -0.0000728505        0.0000273492       -0.0000079921
 Se         0.0000450276       -0.0000246344       -0.0003539565
 Se         0.0000307718       -0.0001248648        0.0003092960
       5
 i =      180, time =       90.000, E =       -40.8743539128
 As        -0.0000479657       -0.0000812382        0.0000266945
 As         0.0000436352        0.0002044796        0.0000175796
 Se        -0.0000697294        0.0000307381       -0.0000042760
 Se         0.0000435105       -0.0000235220       -0.0003480082
 Se         0.0000303205       -0.0001241450        0.0003102724
       5
 i =      185, time =       92.500, E =       -40.8737672354
 As        -0.0000420541       -0.0000860932        0.0000215361
 As         0.0000363799        0.0002049859        0.0000107208
 Se        -0.0000671114        0.0000340487       -0.0000006205
 Se         0.0000423418       -0.0000231183       -0.0003403242
 Se         0.0000301468       -0.0001237331        0.0003103356
       5
 i =      190, time =       95.000, E =       -40.8730163768
 As        -0.0000364386       -0.0000893801        0.0000158298
 As         0.0000293142        0.0002038420        0.0000033698
 Se        -0.0000643009        0.0000368981        0.0000029660
 Se         0.0000411113       -0.0000231737       -0.0003271987
 Se         0.0000299435       -0.0001223229        0.0003060137
       5
 i =      195, time =       97.500, E =       -40.8721207346
 As        -0.0000312182       -0.0000909544        0.0000096877
 As         0.0000225215        0.0002008991       -0.0000043000
 Se        -0.0000613154        0.0000392149        0.0000064203
 Se         0.0000398499       -0.0000236488       -0.0003085916
 Se         0.0000297106       -0.0001198773        0.0002970579
       5
 i =      200, time =      100.000, E =       -40.8710898719
 As        -0.0000273170       -0.0000932511        0.0000034937
 As         0.0000166690        0.0002016002       -0.0000122399
 Se        -0.0000598669        0.0000420318        0.0000098712
 Se         0.0000396911       -0.0000251331       -0.0002931296
 Se         0.0000302725       -0.0001196956        0.0002915554
